Circuit: * C:\Users\iikka\Documents\LTspiceXVII\DemotLT1a.asc


Date: Fri Oct 13 11:15:29 2017
Total elapsed time: 0.047 seconds.

tnom = 27
temp = 27
method = trap
totiter = 21
traniter = 0
tranpoints = 0
accept = 0
rejected = 0
matrix size = 3
fillins = 0
solver = Normal
Matrix Compiler1: 104 bytes object code size
Matrix Compiler2: 189 bytes object code size
