Circuit: * C:\Users\iikka\Documents\LTspiceXVII\DemotLT2.asc

WARNING: Specified period is not longer than the sum of Trise, Tfall, and Ton for v1.  Increasing period to 0.001
Limiting rise time of source v1 to 1.95156e-019
Limiting fall time of source v1 to 1.95156e-019
.OP point found by inspection.

Date: Fri Oct 13 11:27:57 2017
Total elapsed time: 0.101 seconds.

tnom = 27
temp = 27
method = modified trap
totiter = 2212
traniter = 2212
tranpoints = 1107
accept = 1099
rejected = 8
matrix size = 6
fillins = 0
solver = Normal
Matrix Compiler1: 182 bytes object code size  0.3/0.2/[0.1]
Matrix Compiler2: 394 bytes object code size  0.2/0.3/[0.1]

